<?xml version="1.0" encoding="UTF-8"?>

<!-- generated on 2024-09-25 22:03:51 by Eclipse SUMO netedit Version 1.20.0
<configuration xmlns:xsi="http://www.w3.org/2001/XMLSchema-instance" xsi:noNamespaceSchemaLocation="http://sumo.dlr.de/xsd/neteditConfiguration.xsd">

    <input>
        <sumo-net-file value="D:\perimeter control\data\yangzhou.net.xml"/>
    </input>

    <output>
        <output-file value="D:\perimeter control\data\yangzhou.net.xml"/>
    </output>

    <processing>
        <geometry.min-radius.fix.railways value="false"/>
        <geometry.max-grade.fix value="false"/>
        <offset.disable-normalization value="true"/>
        <lefthand value="0"/>
    </processing>

    <junctions>
        <no-turnarounds value="true"/>
        <junctions.corner-detail value="5"/>
        <junctions.limit-turn-speed value="5.50"/>
        <rectangular-lane-cut value="0"/>
    </junctions>

    <pedestrian>
        <walkingareas value="0"/>
    </pedestrian>

</configuration>
-->

<net version="1.20" junctionCornerDetail="5" limitTurnSpeed="5.50" xmlns:xsi="http://www.w3.org/2001/XMLSchema-instance" xsi:noNamespaceSchemaLocation="http://sumo.dlr.de/xsd/net_file.xsd">

    <location netOffset="-706579.02,-3569391.53" convBoundary="13096.51,13070.14,25779.90,21318.22" origBoundary="119.197790,32.233378,119.869533,32.812705" projParameter="+proj=utm +zone=50 +ellps=WGS84 +datum=WGS84 +units=m +no_defs"/>

    <type id="highway.living_street" priority="2" numLanes="1" speed="2.78" disallow="tram rail_urban rail rail_electric rail_fast ship" oneway="1"/>
    <type id="highway.primary" priority="12" numLanes="2" speed="27.78" disallow="tram rail_urban rail rail_electric rail_fast ship" oneway="1"/>
    <type id="highway.residential" priority="3" numLanes="1" speed="13.89" disallow="tram rail_urban rail rail_electric rail_fast ship" oneway="1"/>
    <type id="highway.secondary" priority="11" numLanes="1" speed="27.78" disallow="tram rail_urban rail rail_electric rail_fast ship" oneway="1"/>
    <type id="highway.service" priority="1" numLanes="1" speed="5.56" allow="pedestrian delivery bicycle" oneway="1"/>
    <type id="highway.tertiary" priority="10" numLanes="1" speed="22.22" disallow="tram rail_urban rail rail_electric rail_fast ship" oneway="1"/>
    <type id="highway.tertiary_link" priority="5" numLanes="1" speed="22.22" disallow="tram rail_urban rail rail_electric rail_fast ship" oneway="1"/>
    <type id="highway.unclassified" priority="4" numLanes="1" speed="13.89" disallow="tram rail_urban rail rail_electric rail_fast ship" oneway="1"/>

    <edge id=":1_0" function="internal">
        <lane id=":1_0_0" index="0" disallow="tram rail_urban rail rail_electric rail_fast ship cable_car subway" speed="6.08" length="9.06" shape="14941.53,14227.27 14939.10,14226.43 14937.15,14226.66 14935.68,14227.96 14934.69,14230.32"/>
    </edge>
    <edge id=":1_1" function="internal">
        <lane id=":1_1_0" index="0" disallow="tram rail_urban rail rail_electric rail_fast ship cable_car subway" speed="27.78" length="31.07" shape="14941.53,14227.27 14933.17,14222.25 14927.09,14217.66 14921.74,14213.72 14915.60,14210.65"/>
        <lane id=":1_1_1" index="1" disallow="tram rail_urban rail rail_electric rail_fast ship cable_car subway" speed="27.78" length="31.07" shape="14942.99,14224.42 14934.58,14219.38 14928.37,14214.74 14922.90,14210.74 14916.70,14207.64"/>
    </edge>
    <edge id=":1_3" function="internal">
        <lane id=":1_3_0" index="0" disallow="tram rail_urban rail rail_electric rail_fast ship cable_car subway" speed="12.87" length="30.33" shape="14944.45,14221.58 14938.07,14217.06 14934.04,14211.30 14932.34,14204.29 14932.99,14196.05"/>
    </edge>
    <edge id=":1_4" function="internal">
        <lane id=":1_4_0" index="0" disallow="tram rail_urban rail rail_electric rail_fast ship cable_car subway" speed="9.40" length="15.82" shape="14942.24,14197.95 14942.18,14201.45 14943.51,14204.66 14946.22,14207.57 14950.32,14210.19"/>
    </edge>
    <edge id=":1_5" function="internal">
        <lane id=":1_5_0" index="0" disallow="tram rail_urban rail rail_electric rail_fast ship cable_car subway" speed="27.78" length="33.18" shape="14942.24,14197.95 14934.69,14230.32"/>
        <lane id=":1_5_1" index="1" disallow="tram rail_urban rail rail_electric rail_fast ship cable_car subway" speed="27.78" length="33.18" shape="14939.10,14197.30 14931.59,14229.52"/>
        <lane id=":1_5_2" index="2" disallow="tram rail_urban rail rail_electric rail_fast ship cable_car subway" speed="27.78" length="33.18" shape="14939.10,14197.30 14936.70,14206.37 14934.08,14213.07 14931.32,14219.75 14928.49,14228.71"/>
    </edge>
    <edge id=":1_8" function="internal">
        <lane id=":1_8_0" index="0" disallow="tram rail_urban rail rail_electric rail_fast ship cable_car subway" speed="10.83" length="29.87" shape="14935.97,14196.66 14933.43,14205.18 14929.59,14210.46 14923.84,14212.34 14915.60,14210.65"/>
        <lane id=":1_8_1" index="1" disallow="tram rail_urban rail rail_electric rail_fast ship cable_car subway" speed="10.17" length="26.24" shape="14935.97,14196.66 14933.47,14203.63 14929.43,14207.78 14923.84,14209.12 14916.70,14207.64"/>
    </edge>
    <edge id=":1_10" function="internal">
        <lane id=":1_10_0" index="0" disallow="tram rail_urban rail rail_electric rail_fast ship cable_car subway" speed="6.21" length="9.05" shape="14920.04,14198.49 14922.52,14199.01 14924.46,14198.56 14925.86,14197.15 14926.72,14194.76"/>
        <lane id=":1_10_1" index="1" disallow="tram rail_urban rail rail_electric rail_fast ship cable_car subway" speed="7.05" length="12.01" shape="14920.04,14198.49 14923.86,14199.47 14926.76,14199.28 14928.76,14197.93 14929.85,14195.41"/>
    </edge>
    <edge id=":1_12" function="internal">
        <lane id=":1_12_0" index="0" disallow="tram rail_urban rail rail_electric rail_fast ship cable_car subway" speed="27.78" length="32.22" shape="14920.04,14198.49 14928.69,14201.45 14935.05,14203.49 14941.48,14205.95 14950.32,14210.19"/>
        <lane id=":1_12_1" index="1" disallow="tram rail_urban rail rail_electric rail_fast ship cable_car subway" speed="27.78" length="32.22" shape="14920.04,14198.49 14928.47,14201.90 14934.35,14204.92 14940.28,14208.37 14948.85,14213.03"/>
        <lane id=":1_12_2" index="2" disallow="tram rail_urban rail rail_electric rail_fast ship cable_car subway" speed="27.78" length="32.22" shape="14918.94,14201.50 14927.34,14204.89 14933.13,14207.88 14938.95,14211.28 14947.39,14215.88"/>
        <lane id=":1_12_3" index="3" disallow="tram rail_urban rail rail_electric rail_fast ship cable_car subway" speed="27.78" length="32.22" shape="14918.94,14201.50 14927.10,14205.33 14932.38,14209.30 14937.69,14213.67 14945.92,14218.72"/>
    </edge>
    <edge id=":1_16" function="internal">
        <lane id=":1_16_0" index="0" disallow="tram rail_urban rail rail_electric rail_fast ship cable_car subway" speed="12.21" length="31.90" shape="14917.85,14204.50 14925.64,14208.60 14930.53,14214.14 14932.51,14221.11 14931.59,14229.52"/>
        <lane id=":1_16_1" index="1" disallow="tram rail_urban rail rail_electric rail_fast ship cable_car subway" speed="11.76" length="29.52" shape="14917.85,14204.50 14924.31,14208.14 14928.24,14213.38 14929.64,14220.24 14928.49,14228.71"/>
    </edge>
    <edge id=":1_18" function="internal">
        <lane id=":1_18_0" index="0" disallow="tram rail_urban rail rail_electric rail_fast ship cable_car subway" speed="9.16" length="17.68" shape="14919.24,14226.31 14920.34,14220.43 14920.10,14215.87 14918.52,14212.61 14915.60,14210.65"/>
        <lane id=":1_18_1" index="1" disallow="tram rail_urban rail rail_electric rail_fast ship cable_car subway" speed="9.80" length="20.40" shape="14919.24,14226.31 14920.72,14219.08 14920.79,14213.57 14919.45,14209.75 14916.70,14207.64"/>
    </edge>
    <edge id=":1_20" function="internal">
        <lane id=":1_20_0" index="0" disallow="tram rail_urban rail rail_electric rail_fast ship cable_car subway" speed="27.78" length="32.61" shape="14919.24,14226.31 14926.72,14194.76"/>
        <lane id=":1_20_1" index="1" disallow="tram rail_urban rail rail_electric rail_fast ship cable_car subway" speed="27.78" length="32.61" shape="14922.33,14227.11 14929.85,14195.41"/>
        <lane id=":1_20_2" index="2" disallow="tram rail_urban rail rail_electric rail_fast ship cable_car subway" speed="27.78" length="32.61" shape="14922.33,14227.11 14932.99,14196.05"/>
    </edge>
    <edge id=":1_23" function="internal">
        <lane id=":1_23_0" index="0" disallow="tram rail_urban rail rail_electric rail_fast ship cable_car subway" speed="10.73" length="30.57" shape="14925.43,14227.92 14928.66,14219.48 14933.13,14214.48 14939.25,14213.19 14947.39,14215.88"/>
        <lane id=":1_23_1" index="1" disallow="tram rail_urban rail rail_electric rail_fast ship cable_car subway" speed="10.12" length="27.07" shape="14925.43,14227.92 14928.47,14220.85 14932.90,14216.96 14938.72,14216.25 14945.92,14218.72"/>
    </edge>
    <edge id=":10_0" function="internal">
        <lane id=":10_0_0" index="0" disallow="tram rail_urban rail rail_electric rail_fast ship cable_car subway" speed="6.59" length="9.99" shape="15366.31,14896.14 15363.38,14895.34 15361.07,14895.57 15359.35,14896.81 15358.24,14899.07"/>
    </edge>
    <edge id=":10_1" function="internal">
        <lane id=":10_1_0" index="0" disallow="tram rail_urban rail rail_electric rail_fast ship cable_car subway" speed="11.11" length="39.22" shape="15367.49,14893.16 15355.73,14887.65 15346.94,14882.36 15339.90,14877.59 15333.38,14873.66"/>
        <lane id=":10_1_1" index="1" disallow="tram rail_urban rail rail_electric rail_fast ship cable_car subway" speed="11.11" length="39.22" shape="15368.68,14890.19 15357.01,14884.72 15348.31,14879.47 15341.33,14874.73 15334.83,14870.81"/>
    </edge>
    <edge id=":10_3" function="internal">
        <lane id=":10_3_0" index="0" disallow="tram rail_urban rail rail_electric rail_fast ship cable_car subway" speed="12.62" length="8.68" shape="15369.86,14887.22 15362.35,14882.86"/>
        <lane id=":10_3_1" index="1" disallow="tram rail_urban rail rail_electric rail_fast ship cable_car subway" speed="12.20" length="6.63" shape="15369.86,14887.22 15364.22,14883.74"/>
    </edge>
    <edge id=":10_23" function="internal">
        <lane id=":10_23_0" index="0" disallow="tram rail_urban rail rail_electric rail_fast ship cable_car subway" speed="12.62" length="25.78" shape="15362.35,14882.86 15361.83,14882.56 15356.98,14876.36 15355.30,14868.63 15356.80,14859.35"/>
    </edge>
    <edge id=":10_24" function="internal">
        <lane id=":10_24_0" index="0" disallow="tram rail_urban rail rail_electric rail_fast ship cable_car subway" speed="12.20" length="25.47" shape="15364.22,14883.74 15363.14,14883.07 15359.23,14877.20 15358.14,14869.61 15359.86,14860.30"/>
    </edge>
    <edge id=":10_5" function="internal">
        <lane id=":10_5_0" index="0" disallow="tram rail_urban rail rail_electric rail_fast ship cable_car subway" speed="8.57" length="15.43" shape="15372.11,14864.06 15370.79,14869.51 15370.57,14873.69 15371.45,14876.61 15373.44,14878.26"/>
        <lane id=":10_5_1" index="1" disallow="tram rail_urban rail rail_electric rail_fast ship cable_car subway" speed="9.28" length="18.24" shape="15372.11,14864.06 15370.36,14870.85 15369.80,14875.97 15370.43,14879.43 15372.25,14881.23"/>
    </edge>
    <edge id=":10_7" function="internal">
        <lane id=":10_7_0" index="0" disallow="tram rail_urban rail rail_electric rail_fast ship cable_car subway" speed="22.22" length="37.66" shape="15369.05,14863.12 15358.24,14899.07"/>
        <lane id=":10_7_1" index="1" disallow="tram rail_urban rail rail_electric rail_fast ship cable_car subway" speed="22.22" length="37.66" shape="15369.05,14863.12 15355.17,14898.17"/>
        <lane id=":10_7_2" index="2" disallow="tram rail_urban rail rail_electric rail_fast ship cable_car subway" speed="22.22" length="37.66" shape="15366.00,14862.18 15352.10,14897.27"/>
    </edge>
    <edge id=":10_10" function="internal">
        <lane id=":10_10_0" index="0" disallow="tram rail_urban rail rail_electric rail_fast ship cable_car subway" speed="11.75" length="36.04" shape="15362.94,14861.24 15358.56,14870.44 15352.56,14874.75 15344.73,14874.70 15334.83,14870.81"/>
    </edge>
    <edge id=":10_11" function="internal">
        <lane id=":10_11_0" index="0" disallow="tram rail_urban rail rail_electric rail_fast ship cable_car subway" speed="6.16" length="9.05" shape="15340.63,14859.48 15343.04,14860.31 15345.01,14860.09 15346.54,14858.84 15347.63,14856.53"/>
        <lane id=":10_11_1" index="1" disallow="tram rail_urban rail rail_electric rail_fast ship cable_car subway" speed="7.01" length="12.07" shape="15340.63,14859.48 15344.32,14860.93 15347.22,14861.07 15349.34,14859.92 15350.68,14857.47"/>
        <lane id=":10_11_2" index="2" disallow="tram rail_urban rail rail_electric rail_fast ship cable_car subway" speed="7.79" length="15.20" shape="15340.63,14859.48 15345.59,14861.54 15349.43,14862.05 15352.15,14861.01 15353.74,14858.41"/>
    </edge>
    <edge id=":10_14" function="internal">
        <lane id=":10_14_0" index="0" disallow="tram rail_urban rail rail_electric rail_fast ship cable_car subway" speed="11.11" length="38.14" shape="15339.17,14862.33 15349.66,14867.68 15357.39,14871.45 15364.57,14874.64 15373.44,14878.26"/>
        <lane id=":10_14_1" index="1" disallow="tram rail_urban rail rail_electric rail_fast ship cable_car subway" speed="11.11" length="38.14" shape="15339.17,14862.33 15349.53,14868.17 15356.85,14872.96 15363.59,14877.15 15372.25,14881.23"/>
        <lane id=":10_14_2" index="2" disallow="tram rail_urban rail rail_electric rail_fast ship cable_car subway" speed="11.11" length="38.14" shape="15337.72,14865.18 15348.17,14871.07 15355.57,14875.89 15362.38,14880.12 15371.07,14884.20"/>
    </edge>
    <edge id=":10_17" function="internal">
        <lane id=":10_17_0" index="0" disallow="tram rail_urban rail rail_electric rail_fast ship cable_car subway" speed="13.55" length="11.73" shape="15336.26,14868.03 15345.20,14873.94 15345.84,14874.72"/>
    </edge>
    <edge id=":10_25" function="internal">
        <lane id=":10_25_0" index="0" disallow="tram rail_urban rail rail_electric rail_fast ship cable_car subway" speed="13.55" length="24.73" shape="15345.84,14874.72 15350.82,14880.78 15353.12,14888.56 15352.10,14897.27"/>
    </edge>
    <edge id=":10_18" function="internal">
        <lane id=":10_18_0" index="0" disallow="tram rail_urban rail rail_electric rail_fast ship cable_car subway" speed="11.33" length="25.25" shape="15342.87,14894.58 15343.81,14888.03 15342.54,14882.37 15339.06,14877.57 15333.38,14873.66"/>
    </edge>
    <edge id=":10_19" function="internal">
        <lane id=":10_19_0" index="0" disallow="tram rail_urban rail rail_electric rail_fast ship cable_car subway" speed="22.22" length="37.90" shape="15342.87,14894.58 15350.68,14857.47"/>
        <lane id=":10_19_1" index="1" disallow="tram rail_urban rail rail_electric rail_fast ship cable_car subway" speed="22.22" length="37.90" shape="15345.95,14895.48 15353.74,14858.41"/>
    </edge>
    <edge id=":10_21" function="internal">
        <lane id=":10_21_0" index="0" disallow="tram rail_urban rail rail_electric rail_fast ship cable_car subway" speed="11.59" length="33.18" shape="15349.02,14896.37 15352.50,14886.98 15357.00,14881.16 15363.31,14879.15 15372.25,14881.23"/>
        <lane id=":10_21_1" index="1" disallow="tram rail_urban rail rail_electric rail_fast ship cable_car subway" speed="10.93" length="29.36" shape="15349.02,14896.37 15352.46,14888.57 15357.28,14883.94 15363.48,14882.48 15371.07,14884.20"/>
    </edge>
    <edge id=":11_0" function="internal">
        <lane id=":11_0_0" index="0" disallow="tram rail_urban rail rail_electric rail_fast ship cable_car subway" speed="6.38" length="9.07" shape="15478.07,14537.75 15475.62,14537.21 15473.63,14537.60 15472.10,14538.93 15471.04,14541.19"/>
        <lane id=":11_0_1" index="1" disallow="tram rail_urban rail rail_electric rail_fast ship cable_car subway" speed="7.21" length="11.88" shape="15478.07,14537.75 15474.30,14536.73 15471.36,14536.80 15469.25,14537.98 15467.98,14540.26"/>
    </edge>
    <edge id=":11_2" function="internal">
        <lane id=":11_2_0" index="0" disallow="tram rail_urban rail rail_electric rail_fast ship cable_car subway" speed="27.78" length="37.25" shape="15479.27,14534.78 15468.38,14530.63 15460.53,14527.34 15453.56,14523.85 15445.27,14519.09"/>
        <lane id=":11_2_1" index="1" disallow="tram rail_urban rail rail_electric rail_fast ship cable_car subway" speed="27.78" length="37.25" shape="15479.27,14534.78 15468.67,14530.22 15461.39,14525.98 15454.95,14521.54 15446.91,14516.34"/>
        <lane id=":11_2_2" index="2" disallow="tram rail_urban rail rail_electric rail_fast ship cable_car subway" speed="27.78" length="37.25" shape="15480.47,14531.81 15470.04,14527.32 15462.89,14523.16 15456.55,14518.77 15448.55,14513.59"/>
    </edge>
    <edge id=":11_5" function="internal">
        <lane id=":11_5_0" index="0" disallow="tram rail_urban rail rail_electric rail_fast ship cable_car subway" speed="12.38" length="34.04" shape="15481.66,14528.85 15473.44,14524.38 15468.46,14518.39 15466.72,14510.87 15468.22,14501.82"/>
    </edge>
    <edge id=":11_6" function="internal">
        <lane id=":11_6_0" index="0" disallow="tram rail_urban rail rail_electric rail_fast ship cable_car subway" speed="7.68" length="12.27" shape="15483.62,14506.74 15482.75,14510.63 15482.90,14513.71 15484.07,14516.00 15486.24,14517.48"/>
        <lane id=":11_6_1" index="1" disallow="tram rail_urban rail rail_electric rail_fast ship cable_car subway" speed="8.43" length="14.99" shape="15483.62,14506.74 15482.31,14511.96 15482.12,14515.98 15483.03,14518.81 15485.05,14520.45"/>
    </edge>
    <edge id=":11_8" function="internal">
        <lane id=":11_8_0" index="0" disallow="tram rail_urban rail rail_electric rail_fast ship cable_car subway" speed="22.22" length="36.75" shape="15480.57,14505.76 15471.04,14541.19"/>
        <lane id=":11_8_1" index="1" disallow="tram rail_urban rail rail_electric rail_fast ship cable_car subway" speed="22.22" length="36.75" shape="15480.57,14505.76 15467.98,14540.26"/>
        <lane id=":11_8_2" index="2" disallow="tram rail_urban rail rail_electric rail_fast ship cable_car subway" speed="22.22" length="36.75" shape="15477.52,14504.79 15464.91,14539.33"/>
        <lane id=":11_8_3" index="3" disallow="tram rail_urban rail rail_electric rail_fast ship cable_car subway" speed="22.22" length="36.75" shape="15474.47,14503.82 15461.85,14538.40"/>
    </edge>
    <edge id=":11_12" function="internal">
        <lane id=":11_12_0" index="0" disallow="tram rail_urban rail rail_electric rail_fast ship cable_car subway" speed="10.73" length="30.94" shape="15471.43,14502.85 15467.74,14511.18 15462.91,14515.93 15456.61,14516.83 15448.55,14513.59"/>
    </edge>
    <edge id=":11_13" function="internal">
        <lane id=":11_13_0" index="0" disallow="tram rail_urban rail rail_electric rail_fast ship cable_car subway" speed="6.06" length="9.06" shape="15455.14,14502.52 15457.51,14503.52 15459.46,14503.41 15461.00,14502.20 15462.13,14499.88"/>
        <lane id=":11_13_1" index="1" disallow="tram rail_urban rail rail_electric rail_fast ship cable_car subway" speed="6.92" length="12.19" shape="15455.14,14502.52 15458.76,14504.21 15461.64,14504.50 15463.78,14503.38 15465.18,14500.85"/>
    </edge>
    <edge id=":11_15" function="internal">
        <lane id=":11_15_0" index="0" disallow="tram rail_urban rail rail_electric rail_fast ship cable_car subway" speed="27.78" length="35.42" shape="15453.50,14505.27 15462.66,14510.05 15469.41,14512.30 15476.40,14514.08 15486.24,14517.48"/>
        <lane id=":11_15_1" index="1" disallow="tram rail_urban rail rail_electric rail_fast ship cable_car subway" speed="27.78" length="35.42" shape="15453.50,14505.27 15462.48,14510.52 15468.82,14513.78 15475.38,14516.58 15485.05,14520.45"/>
        <lane id=":11_15_2" index="2" disallow="tram rail_urban rail rail_electric rail_fast ship cable_car subway" speed="27.78" length="35.42" shape="15451.86,14508.02 15460.97,14513.34 15467.39,14516.65 15474.05,14519.50 15483.85,14523.42"/>
        <lane id=":11_15_3" index="3" disallow="tram rail_urban rail rail_electric rail_fast ship cable_car subway" speed="27.78" length="35.42" shape="15451.86,14508.02 15460.82,14513.84 15466.79,14518.15 15472.99,14521.99 15482.66,14526.38"/>
    </edge>
    <edge id=":11_19" function="internal">
        <lane id=":11_19_0" index="0" disallow="tram rail_urban rail rail_electric rail_fast ship cable_car subway" speed="13.59" length="34.86" shape="15450.23,14510.77 15458.56,14517.00 15463.78,14523.84 15465.90,14531.28 15464.91,14539.33"/>
        <lane id=":11_19_1" index="1" disallow="tram rail_urban rail rail_electric rail_fast ship cable_car subway" speed="13.16" length="32.63" shape="15450.23,14510.77 15457.30,14516.31 15461.60,14522.76 15463.12,14530.12 15461.85,14538.40"/>
    </edge>
    <edge id=":11_21" function="internal">
        <lane id=":11_21_0" index="0" disallow="tram rail_urban rail rail_electric rail_fast ship cable_car subway" speed="9.23" length="15.68" shape="15446.53,14533.75 15447.80,14528.42 15448.01,14524.20 15447.17,14521.09 15445.27,14519.09"/>
    </edge>
    <edge id=":11_22" function="internal">
        <lane id=":11_22_0" index="0" disallow="tram rail_urban rail rail_electric rail_fast ship cable_car subway" speed="22.22" length="36.94" shape="15449.59,14534.68 15462.13,14499.88"/>
        <lane id=":11_22_1" index="1" disallow="tram rail_urban rail rail_electric rail_fast ship cable_car subway" speed="22.22" length="36.94" shape="15452.65,14535.61 15465.18,14500.85"/>
        <lane id=":11_22_2" index="2" disallow="tram rail_urban rail rail_electric rail_fast ship cable_car subway" speed="22.22" length="36.94" shape="15455.71,14536.54 15468.22,14501.82"/>
    </edge>
    <edge id=":11_25" function="internal">
        <lane id=":11_25_0" index="0" disallow="tram rail_urban rail rail_electric rail_fast ship cable_car subway" speed="11.19" length="30.65" shape="15458.77,14537.47 15462.38,14529.86 15467.56,14525.48 15474.32,14524.32 15482.66,14526.38"/>
    </edge>
    <edge id=":12_0" function="internal">
        <lane id=":12_0_0" index="0" disallow="tram rail_urban rail rail_electric rail_fast ship cable_car subway" speed="5.88" length="9.11" shape="15614.19,14132.63 15611.93,14131.25 15610.02,14131.12 15608.46,14132.22 15607.25,14134.58"/>
        <lane id=":12_0_1" index="1" disallow="tram rail_urban rail rail_electric rail_fast ship cable_car subway" speed="6.76" length="12.50" shape="15614.19,14132.63 15610.75,14130.37 15607.95,14129.77 15605.78,14130.82 15604.23,14133.52"/>
        <lane id=":12_0_2" index="2" disallow="tram rail_urban rail rail_electric rail_fast ship cable_car subway" speed="7.57" length="15.97" shape="15614.19,14132.63 15609.58,14129.49 15605.88,14128.42 15603.09,14129.41 15601.21,14132.47"/>
    </edge>
    <edge id=":12_3" function="internal">
        <lane id=":12_3_0" index="0" disallow="tram rail_urban rail rail_electric rail_fast ship cable_car subway" speed="22.22" length="40.00" shape="15614.19,14132.63 15583.06,14107.51"/>
    </edge>
    <edge id=":12_4" function="internal">
        <lane id=":12_4_0" index="0" disallow="tram rail_urban rail rail_electric rail_fast ship cable_car subway" speed="14.45" length="7.70" shape="15614.19,14132.63 15608.66,14127.27"/>
    </edge>
    <edge id=":12_22" function="internal">
        <lane id=":12_22_0" index="0" disallow="tram rail_urban rail rail_electric rail_fast ship cable_car subway" speed="14.45" length="24.52" shape="15608.66,14127.27 15607.11,14125.77 15602.56,14118.89 15600.53,14111.99 15601.01,14105.08"/>
    </edge>
    <edge id=":12_5" function="internal">
        <lane id=":12_5_0" index="0" disallow="tram rail_urban rail rail_electric rail_fast ship cable_car subway" speed="12.79" length="24.92" shape="15610.18,14107.39 15609.20,14114.37 15609.88,14120.49 15612.22,14125.75 15616.22,14130.16"/>
    </edge>
    <edge id=":12_6" function="internal">
        <lane id=":12_6_0" index="0" disallow="tram rail_urban rail rail_electric rail_fast ship cable_car subway" speed="22.22" length="26.80" shape="15610.18,14107.39 15608.98,14115.43 15609.18,14121.12 15609.15,14126.75 15607.25,14134.58"/>
        <lane id=":12_6_1" index="1" disallow="tram rail_urban rail rail_electric rail_fast ship cable_car subway" speed="22.22" length="26.80" shape="15610.18,14107.39 15608.52,14115.19 15607.66,14120.59 15606.57,14125.93 15604.23,14133.52"/>
        <lane id=":12_6_2" index="2" disallow="tram rail_urban rail rail_electric rail_fast ship cable_car subway" speed="22.22" length="26.80" shape="15607.07,14106.61 15605.44,14114.32 15604.59,14119.67 15603.52,14124.96 15601.21,14132.47"/>
        <lane id=":12_6_3" index="3" disallow="tram rail_urban rail rail_electric rail_fast ship cable_car subway" speed="22.22" length="26.80" shape="15607.07,14106.61 15604.97,14114.14 15603.08,14119.15 15600.96,14124.09 15598.19,14131.42"/>
        <lane id=":12_6_4" index="4" disallow="tram rail_urban rail rail_electric rail_fast ship cable_car subway" speed="22.22" length="26.80" shape="15607.07,14106.61 15604.49,14114.00 15601.57,14118.62 15598.43,14123.18 15595.17,14130.37"/>
    </edge>
    <edge id=":12_11" function="internal">
        <lane id=":12_11_0" index="0" disallow="tram rail_urban rail rail_electric rail_fast ship cable_car subway" speed="9.38" length="26.43" shape="15603.97,14105.83 15600.82,14111.88 15595.90,14113.62 15589.79,14111.89 15583.06,14107.51"/>
    </edge>
    <edge id=":12_12" function="internal">
        <lane id=":12_12_0" index="0" disallow="tram rail_urban rail rail_electric rail_fast ship cable_car subway" speed="5.79" length="9.15" shape="15585.04,14105.00 15587.36,14106.36 15589.24,14106.44 15590.69,14105.23 15591.70,14102.74"/>
    </edge>
    <edge id=":12_13" function="internal">
        <lane id=":12_13_0" index="0" disallow="tram rail_urban rail rail_electric rail_fast ship cable_car subway" speed="22.22" length="40.06" shape="15585.04,14105.00 15616.22,14130.16"/>
    </edge>
    <edge id=":12_14" function="internal">
        <lane id=":12_14_0" index="0" disallow="tram rail_urban rail rail_electric rail_fast ship cable_car subway" speed="13.48" length="10.07" shape="15585.04,14105.00 15592.43,14111.84"/>
        <lane id=":12_14_1" index="1" disallow="tram rail_urban rail rail_electric rail_fast ship cable_car subway" speed="13.02" length="7.95" shape="15585.04,14105.00 15590.76,14110.52"/>
    </edge>
    <edge id=":12_23" function="internal">
        <lane id=":12_23_0" index="0" disallow="tram rail_urban rail rail_electric rail_fast ship cable_car subway" speed="13.48" length="21.37" shape="15592.43,14111.84 15597.09,14118.53 15599.01,14125.05 15598.19,14131.42"/>
    </edge>
    <edge id=":12_24" function="internal">
        <lane id=":12_24_0" index="0" disallow="tram rail_urban rail rail_electric rail_fast ship cable_car subway" speed="13.02" length="21.33" shape="15590.76,14110.52 15591.25,14110.99 15595.01,14117.21 15596.31,14123.67 15595.17,14130.37"/>
    </edge>
    <edge id=":12_16" function="internal">
        <lane id=":12_16_0" index="0" disallow="tram rail_urban rail rail_electric rail_fast ship cable_car subway" speed="11.14" length="21.27" shape="15586.00,14127.18 15587.60,14120.85 15587.64,14115.47 15586.13,14111.02 15583.06,14107.51"/>
    </edge>
    <edge id=":12_17" function="internal">
        <lane id=":12_17_0" index="0" disallow="tram rail_urban rail rail_electric rail_fast ship cable_car subway" speed="22.22" length="25.55" shape="15586.00,14127.18 15588.21,14120.07 15589.25,14115.08 15590.10,14110.02 15591.70,14102.74"/>
        <lane id=":12_17_1" index="1" disallow="tram rail_urban rail rail_electric rail_fast ship cable_car subway" speed="22.22" length="25.55" shape="15586.00,14127.18 15588.70,14120.18 15590.81,14115.47 15592.71,14110.70 15594.80,14103.52"/>
        <lane id=":12_17_2" index="2" disallow="tram rail_urban rail rail_electric rail_fast ship cable_car subway" speed="22.22" length="25.55" shape="15589.02,14128.23 15591.75,14121.15 15593.87,14116.39 15595.79,14111.57 15597.91,14104.30"/>
        <lane id=":12_17_3" index="3" disallow="tram rail_urban rail rail_electric rail_fast ship cable_car subway" speed="22.22" length="25.55" shape="15589.02,14128.23 15592.26,14121.20 15595.43,14116.78 15598.40,14112.30 15601.01,14105.08"/>
    </edge>
    <edge id=":12_21" function="internal">
        <lane id=":12_21_0" index="0" disallow="tram rail_urban rail rail_electric rail_fast ship cable_car subway" speed="10.18" length="29.97" shape="15592.04,14129.28 15596.18,14123.03 15601.85,14121.90 15608.67,14124.69 15616.22,14130.16"/>
    </edge>
    <edge id=":13_0" function="internal">
        <lane id=":13_0_0" index="0" disallow="tram rail_urban rail rail_electric rail_fast ship cable_car subway" speed="6.52" length="9.03" shape="15698.23,13857.16 15695.85,13856.47 15693.82,13856.69 15692.14,13857.85 15690.80,13859.92"/>
        <lane id=":13_0_1" index="1" disallow="tram rail_urban rail rail_electric rail_fast ship cable_car subway" speed="7.34" length="11.72" shape="15698.23,13857.16 15694.58,13855.89 15691.64,13855.70 15689.41,13856.60 15687.89,13858.59"/>
    </edge>
    <edge id=":13_2" function="internal">